<?xml version="1.0" encoding="UTF-8"?>

<routes xmlns:xsi="http://www.w3.org/2001/XMLSchema-instance" xsi:noNamespaceSchemaLocation="http://sumo.dlr.de/xsd/routes_file.xsd">
	<vehicle id="LKW" type="trailer" depart="27000.00" departPos="random" departSpeed="0.00" arrivalPos="random" arrivalSpeed="0.00">
        <route edges="-31606#0 -31606#1 --31634 --30768#1 --30768#0 -31230#2 -32628 --31272#2 --31272#1 --31272#0 -30528#21 -30528#22 -30528#23 -30528#24 -30528#25 -30528#26 -30528#27 -30528#28 -30528#29 -30528#30 -31888#0 -31888#1 -30496#4"/>
		<stop busStop="457" duration="200.00"/>
		<param key="packageCapacity" value="42"/>
    </vehicle>
	<vehicle id="Truck_1" type="trailer" depart="27000.00" departPos="random" departSpeed="0.00" arrivalPos="random" arrivalSpeed="0.00">
        <route edges="-31606#0 -31606#1 --31634 --30768#1 --30768#0 -31230#2 -32628 --31272#2 --31272#1 --31272#0 -30528#21 -30528#22 -30528#23 -30528#24 -30528#25 -30528#26 -30528#27 -30528#28 -30528#29 -30528#30 -31888#0 -31888#1 -30496#4"/>
		<stop busStop="457" duration="10.00"/>
		<param key="packageCapacity" value="42"/>
    </vehicle>
	<vehicle id="Truck_2" type="trailer" depart="27000.00" departPos="random" departSpeed="0.00" arrivalPos="random" arrivalSpeed="0.00">
        <route edges="-31606#0 -31606#1 --31634 --30768#1 --30768#0 -31230#2 -32628 --31272#2 --31272#1 --31272#0 -30528#21 -30528#22 -30528#23 -30528#24 -30528#25 -30528#26 -30528#27 -30528#28 -30528#29 -30528#30 -31888#0 -31888#1 -30496#4"/>
		<param key="packageCapacity" value="42"/>
    </vehicle>
	<vehicle id="Truck_3" type="trailer" depart="27000.00" departPos="random" departSpeed="0.00" arrivalPos="random" arrivalSpeed="0.00">
        <route edges="-31606#0 -31606#1 --31634 --30768#1 --30768#0 -31230#2 -32628 --31272#2 --31272#1 --31272#0 -30528#21 -30528#22 -30528#23 -30528#24 -30528#25 -30528#26 -30528#27 -30528#28 -30528#29 -30528#30 -31888#0 -31888#1 -30496#4"/>
		<param key="packageCapacity" value="42"/>
    </vehicle>
	<vehicle id="Truck_4" type="trailer" depart="27000.00" departPos="random" departSpeed="0.00" arrivalPos="random" arrivalSpeed="0.00">
        <route edges="-31606#0 -31606#1 --31634 --30768#1 --30768#0 -31230#2 -32628 --31272#2 --31272#1 --31272#0 -30528#21 -30528#22 -30528#23 -30528#24 -30528#25 -30528#26 -30528#27 -30528#28 -30528#29 -30528#30 -31888#0 -31888#1 -30496#4"/>
		<param key="packageCapacity" value="42"/>
    </vehicle>
	<vehicle id="Truck_5" type="trailer" depart="27000.00" departPos="random" departSpeed="0.00" arrivalPos="random" arrivalSpeed="0.00">
        <route edges="-31606#0 -31606#1 --31634 --30768#1 --30768#0 -31230#2 -32628 --31272#2 --31272#1 --31272#0 -30528#21 -30528#22 -30528#23 -30528#24 -30528#25 -30528#26 -30528#27 -30528#28 -30528#29 -30528#30 -31888#0 -31888#1 -30496#4"/>
		<param key="packageCapacity" value="42"/>
    </vehicle>
	<vehicle id="Truck_6" type="trailer" depart="27000.00" departPos="random" departSpeed="0.00" arrivalPos="random" arrivalSpeed="0.00">
        <route edges="-31606#0 -31606#1 --31634 --30768#1 --30768#0 -31230#2 -32628 --31272#2 --31272#1 --31272#0 -30528#21 -30528#22 -30528#23 -30528#24 -30528#25 -30528#26 -30528#27 -30528#28 -30528#29 -30528#30 -31888#0 -31888#1 -30496#4"/>
		<param key="packageCapacity" value="42"/>
    </vehicle>
</routes>